@<TRIPOS>MOLECULE
LIG
   16    16     1     0     0
SMALL
bcc


@<TRIPOS>ATOM
      1 C1           1.3990    -0.2480    -0.0500 ca         1 LIG      -0.091000
      2 C2           0.4980    -1.3160     0.0180 ca         1 LIG      -0.138500
      3 C3          -0.8750    -1.0770     0.0360 ca         1 LIG      -0.109000
      4 C4          -1.3540     0.2310    -0.0030 ca         1 LIG      -0.138500
      5 C5          -0.4570     1.2990    -0.0730 ca         1 LIG      -0.091000
      6 C6           0.9270     1.0700    -0.1070 ca         1 LIG      -0.141600
      7 C7           1.8230     2.2580    -0.2130 c          1 LIG       0.670700
      8 O1           1.3750     3.3990    -0.2400 o          1 LIG      -0.610100
      9 N1           3.1720     2.0600    -0.2980 nt         1 LIG      -0.675000
     10 H1           2.4580    -0.4780    -0.0570 ha         1 LIG       0.144500
     11 H2           0.8690    -2.3380     0.0540 ha         1 LIG       0.137000
     12 H3          -1.5730    -1.9100     0.0830 ha         1 LIG       0.135000
     13 H4          -2.4240     0.4220     0.0160 ha         1 LIG       0.137000
     14 H5          -0.8440     2.3160    -0.1070 ha         1 LIG       0.144500
     15 H6           3.6300     1.1630    -0.3350 hn         1 LIG       0.312500
     16 H7           3.7440     2.8870    -0.4080 hn         1 LIG       0.312500
@<TRIPOS>BOND
     1     1     2 ar  
     2     1     6 ar  
     3     1    10 1   
     4     2     3 ar  
     5     2    11 1   
     6     3     4 ar  
     7     3    12 1   
     8     4     5 ar  
     9     4    13 1   
    10     5     6 ar  
    11     5    14 1   
    12     6     7 1   
    13     7     8 2   
    14     7     9 1   
    15     9    15 1   
    16     9    16 1   
@<TRIPOS>SUBSTRUCTURE
     1 LIG         1 TEMP              0 ****  ****    0 ROOT
